6
2H2O
 O    1.0877421469449962        2.0531859961965684       0.52563958486309148     
 O   0.24166808749144889        1.9711427665778201       -2.0848082700964907
 H    9.1049261276682586E-002   2.9054544650557821       -2.3506556784298205
 H    1.0183491043749509        1.6852812070841050       -2.6151871632108934
 H   0.73385284840974530        1.9840575297741609      -0.40777546725064645
 H   0.46493291729586611        1.5101732181889764        1.0538209985845548
